 Case_ID  AeroDyn        AeroDyn            ElastoDyn           ElastoDyn           ElastoDyn       ElastoDyn  ElastoDyn   Fst    Fst    InflowWind  SeaState  SeaState   SeaState   SeaState   TurbSim   
          Wake_Mod      tau1_const           BlPitch1            BlPitch2            BlPitch3         NacYaw    RotSpeed   TMax  TStart  HWindSpeed   WaveHs   WaveMod   WaveSeed1    WaveTp   RandSeed1  
    0        1      25.353075267567498       0.000535            0.000535            0.000535           0        5.6819   700.0   0.0       8.0        9.7        2      304524126     13.6    1501552846 
    1        1      20.246391050995552       0.000535            0.000535            0.000535           0       7.101976  700.0   0.0       10.0       9.7        2      1192975140    13.6    488200390  
    2        1      13.870629212880328  3.6112249999999997  3.6112249999999997  3.6112249999999997      0       7.559987  700.0   0.0       12.0       9.7        2      1668389755    13.6    1693606511 
    3        1      10.552725740135937      7.6206215           7.6206215           7.6206215           0       7.559987  700.0   0.0       14.0       9.7        2      489172031     13.6    680233354  
    4        1      8.872010897224483       10.5067755          10.5067755          10.5067755          0       7.559987  700.0   0.0       16.0       9.7        2      349375909     13.6    438466540  
