 Case_ID  AeroDyn15  AeroDyn15  AeroDyn15  AeroDyn15  AeroDyn15  AeroDyn15  AeroDyn15   DLC    DLC       DLC      ElastoDyn  ElastoDyn  ElastoDyn  ElastoDyn  ElastoDyn      ElastoDyn       Fst    Fst    Fst    HydroDyn  HydroDyn   HydroDyn   HydroDyn   HydroDyn                                                             InflowWind                                                                                                                       InflowWind                                                            InflowWind    InflowWind        InflowWind      InflowWind  InflowWind   ServoDyn   ServoDyn   ServoDyn 
          AFAeroMod     OLAF       OLAF       OLAF       OLAF       OLAF     WakeMod   Label  MeanWS   WindSeed    Azimuth    BlPitch1   BlPitch2   BlPitch3    NacYaw        RotSpeed        DT    TMax  TStart  WaveDir    WaveHs   WavePkShp  WaveSeed1    WaveTp                                                             FileName_BTS                                                                                                                     Filename_Uni                                                           HWindSpeed  PropagationDir      RefHt_Uni       RefLength    WindType   TPitManS1  TPitManS2  TPitManS3 
    0         2         0.0         0          0          0          0          2       1.6    8.0    1501552846      0         15.0       15.0       15.0       0.0     7.5599999913614395  0.01  700.0   0.0      0.0       8.0        0.0     304524126     12.7     /home/athulsun/multifidelity_paper_studies/04_dfsm/transition2/openfast_runs/wind/IEA_w_TMD_NTM_U8.000000_Seed1501552846.0.bts   /home/athulsun/multifidelity_paper_studies/04_dfsm/transition2/openfast_runs/wind/IEA_w_TMD_NTM_U8.000000_Seed1501552846.0.bts     8.0           0.0        148.73499999999999    241.94        3          9999       9999       9999   
    1         2         0.0         0          0          0          0          2       1.6    10.0   488200390       0         15.0       15.0       15.0       0.0     7.5599999913614395  0.01  700.0   0.0      0.0       8.1        0.0     1192975140    12.8     /home/athulsun/multifidelity_paper_studies/04_dfsm/transition2/openfast_runs/wind/IEA_w_TMD_NTM_U10.000000_Seed488200390.0.bts   /home/athulsun/multifidelity_paper_studies/04_dfsm/transition2/openfast_runs/wind/IEA_w_TMD_NTM_U10.000000_Seed488200390.0.bts     10.0          0.0        148.73499999999999    241.94        3          9999       9999       9999   
    2         2         0.0         0          0          0          0          2       1.6    12.0   1693606511      0         15.0       15.0       15.0       0.0     7.5599999913614395  0.01  700.0   0.0      0.0       8.5        0.0     1668389755    13.1    /home/athulsun/multifidelity_paper_studies/04_dfsm/transition2/openfast_runs/wind/IEA_w_TMD_NTM_U12.000000_Seed1693606511.0.bts  /home/athulsun/multifidelity_paper_studies/04_dfsm/transition2/openfast_runs/wind/IEA_w_TMD_NTM_U12.000000_Seed1693606511.0.bts     12.0          0.0        148.73499999999999    241.94        3          9999       9999       9999   
    3         2         0.0         0          0          0          0          2       1.6    14.0   680233354       0         15.0       15.0       15.0       0.0     7.5599999913614395  0.01  700.0   0.0      0.0       8.5        0.0     489172031     13.1     /home/athulsun/multifidelity_paper_studies/04_dfsm/transition2/openfast_runs/wind/IEA_w_TMD_NTM_U14.000000_Seed680233354.0.bts   /home/athulsun/multifidelity_paper_studies/04_dfsm/transition2/openfast_runs/wind/IEA_w_TMD_NTM_U14.000000_Seed680233354.0.bts     14.0          0.0        148.73499999999999    241.94        3          9999       9999       9999   
    4         2         0.0         0          0          0          0          2       1.6    16.0   438466540       0         15.0       15.0       15.0       0.0     7.5599999913614395  0.01  700.0   0.0      0.0       9.8        0.0     349375909     14.1     /home/athulsun/multifidelity_paper_studies/04_dfsm/transition2/openfast_runs/wind/IEA_w_TMD_NTM_U16.000000_Seed438466540.0.bts   /home/athulsun/multifidelity_paper_studies/04_dfsm/transition2/openfast_runs/wind/IEA_w_TMD_NTM_U16.000000_Seed438466540.0.bts     16.0          0.0        148.73499999999999    241.94        3          9999       9999       9999   
