 Case_ID  AeroDyn        AeroDyn       ElastoDyn   ElastoDyn   ElastoDyn   ElastoDyn  ElastoDyn   Fst    Fst    InflowWind  SeaState  SeaState   SeaState  SeaState   TurbSim   
          Wake_Mod      tau1_const      BlPitch1    BlPitch2    BlPitch3     NacYaw    RotSpeed   TMax  TStart  HWindSpeed   WaveHs   WaveMod   WaveSeed1   WaveTp   RandSeed1  
    0        1      8.872010897224483  10.5067755  10.5067755  10.5067755      0       7.559987  700.0   0.0       16.0       9.7        2      304524126    13.6    1501552846 
