          case_name DLC  (AeroDyn, Wake_Mod)  (AeroDyn, tau1_const)  (ElastoDyn, BlPitch1)  (ElastoDyn, BlPitch2)  (ElastoDyn, BlPitch3)  (ElastoDyn, NacYaw)  (ElastoDyn, RotSpeed)  (Fst, TMax)  (Fst, TStart)  (InflowWind, HWindSpeed)  (SeaState, WaveHs)  (SeaState, WaveMod)  (SeaState, WaveSeed1)  (SeaState, WaveTp)  (TurbSim, RandSeed1)  (InflowWind, WindType)                                                                                                  (InflowWind, FileName_Uni)                                                                                                  (InflowWind, FileName_BTS)
DLC1.6_0_weis_job_0 1.6                    1               8.872011              10.506775              10.506775              10.506775                    0               7.559987        700.0            0.0                      16.0                 9.7                    2              304524126                13.6            1501552846                       3 /home/athulsun/multifidelity_paper_studies/04_dfsm/rated-16/openfast_runs/wind/weis_job_NTM_U16.000000_Seed1501552846.0.bts /home/athulsun/multifidelity_paper_studies/04_dfsm/rated-16/openfast_runs/wind/weis_job_NTM_U16.000000_Seed1501552846.0.bts