          case_name DLC  (AeroDyn, Wake_Mod)  (AeroDyn, tau1_const)  (ElastoDyn, BlPitch1)  (ElastoDyn, BlPitch2)  (ElastoDyn, BlPitch3)  (ElastoDyn, NacYaw)  (ElastoDyn, RotSpeed)  (Fst, TMax)  (Fst, TStart)  (InflowWind, HWindSpeed)  (SeaState, WaveHs)  (SeaState, WaveMod)  (SeaState, WaveSeed1)  (SeaState, WaveTp)  (TurbSim, RandSeed1)  (InflowWind, WindType)                                                                                                         (InflowWind, FileName_Uni)                                                                                                         (InflowWind, FileName_BTS)
DLC1.6_0_weis_job_0 1.6                    1              25.353075               0.000535               0.000535               0.000535                    0               5.681900        100.0            0.0                       8.0                 9.7                    2              304524126                13.6            1501552846                       3  /home/athulsun/multifidelity_paper_studies/04_dfsm/transition-test/openfast_runs/wind/weis_job_NTM_U8.000000_Seed1501552846.0.bts  /home/athulsun/multifidelity_paper_studies/04_dfsm/transition-test/openfast_runs/wind/weis_job_NTM_U8.000000_Seed1501552846.0.bts
DLC1.6_0_weis_job_1 1.6                    1              20.246391               0.000535               0.000535               0.000535                    0               7.101976        100.0            0.0                      10.0                 9.7                    2             1192975140                13.6             488200390                       3  /home/athulsun/multifidelity_paper_studies/04_dfsm/transition-test/openfast_runs/wind/weis_job_NTM_U10.000000_Seed488200390.0.bts  /home/athulsun/multifidelity_paper_studies/04_dfsm/transition-test/openfast_runs/wind/weis_job_NTM_U10.000000_Seed488200390.0.bts
DLC1.6_0_weis_job_2 1.6                    1              13.870629               3.611225               3.611225               3.611225                    0               7.559987        100.0            0.0                      12.0                 9.7                    2             1668389755                13.6            1693606511                       3 /home/athulsun/multifidelity_paper_studies/04_dfsm/transition-test/openfast_runs/wind/weis_job_NTM_U12.000000_Seed1693606511.0.bts /home/athulsun/multifidelity_paper_studies/04_dfsm/transition-test/openfast_runs/wind/weis_job_NTM_U12.000000_Seed1693606511.0.bts
DLC1.6_0_weis_job_3 1.6                    1              10.552726               7.620622               7.620622               7.620622                    0               7.559987        100.0            0.0                      14.0                 9.7                    2              489172031                13.6             680233354                       3  /home/athulsun/multifidelity_paper_studies/04_dfsm/transition-test/openfast_runs/wind/weis_job_NTM_U14.000000_Seed680233354.0.bts  /home/athulsun/multifidelity_paper_studies/04_dfsm/transition-test/openfast_runs/wind/weis_job_NTM_U14.000000_Seed680233354.0.bts
DLC1.6_0_weis_job_4 1.6                    1               8.872011              10.506775              10.506775              10.506775                    0               7.559987        100.0            0.0                      16.0                 9.7                    2              349375909                13.6             438466540                       3  /home/athulsun/multifidelity_paper_studies/04_dfsm/transition-test/openfast_runs/wind/weis_job_NTM_U16.000000_Seed438466540.0.bts  /home/athulsun/multifidelity_paper_studies/04_dfsm/transition-test/openfast_runs/wind/weis_job_NTM_U16.000000_Seed438466540.0.bts